<?xml version="1.0" encoding="UTF-8"?>

<!-- generated on 2025-05-02 00:44:28.773848 by randomTrips.py UNKNOWN
<configuration>
    <net-file value="map.net.xml"/>
    <output-trip-file value="map_routes.rou.xml"/>
    <length value="True"/>
    <random value="True"/>
    <end value="600.0"/>
</configuration>
-->

<routes xmlns:xsi="http://www.w3.org/2001/XMLSchema-instance" xsi:noNamespaceSchemaLocation="http://sumo.dlr.de/xsd/routes_file.xsd">
    <trip id="0" depart="0.00" from="582088633" to="378456337"/>
    <trip id="1" depart="1.00" from="28320648#2" to="232538990"/>
    <trip id="2" depart="2.00" from="764116241#6" to="232538990"/>
    <trip id="3" depart="3.00" from="-55697486#1" to="212724368#3"/>
    <trip id="4" depart="4.00" from="-582088639#1" to="-1260489062#0"/>
    <trip id="5" depart="5.00" from="335527377#1" to="-216086967#0"/>
    <trip id="6" depart="6.00" from="457336112#1" to="212724760#1"/>
    <trip id="7" depart="7.00" from="381473319#1" to="763981339#7"/>
    <trip id="8" depart="8.00" from="259480949#2" to="763981330#1"/>
    <trip id="9" depart="9.00" from="-259862199#3" to="28718664#7"/>
    <trip id="10" depart="10.00" from="-245404536#1" to="-55696746#5"/>
    <trip id="11" depart="11.00" from="55684811#1" to="763981363#0"/>
    <trip id="12" depart="12.00" from="235001457#0" to="55696747#8"/>
    <trip id="13" depart="13.00" from="987768589#3" to="-1261913122#1"/>
    <trip id="14" depart="14.00" from="763981339#7" to="335527380"/>
    <trip id="15" depart="15.00" from="1260490070#2" to="1248255094#0"/>
    <trip id="16" depart="16.00" from="172622685#0" to="293499689"/>
    <trip id="17" depart="17.00" from="-212722769#2" to="55696747#3"/>
    <trip id="18" depart="18.00" from="259862200#0" to="537298737#4"/>
    <trip id="19" depart="19.00" from="-258738672#1" to="235002631#3"/>
    <trip id="20" depart="20.00" from="142432191#3" to="763981353#2"/>
    <trip id="21" depart="21.00" from="28718654#0" to="763981335#3"/>
    <trip id="22" depart="22.00" from="258738673#9" to="601991309#3"/>
    <trip id="23" depart="23.00" from="55696747#0" to="763981335#7"/>
    <trip id="24" depart="24.00" from="28718664#7" to="-973937408"/>
    <trip id="25" depart="25.00" from="334648176#17" to="162532764#6"/>
    <trip id="26" depart="26.00" from="-212724368#1" to="-188310314"/>
    <trip id="27" depart="27.00" from="259862201#3" to="28718664#4"/>
    <trip id="28" depart="28.00" from="763981335#8" to="335527368"/>
    <trip id="29" depart="29.00" from="-181012263#2" to="763981337#3"/>
    <trip id="30" depart="30.00" from="-55697486#5" to="-260087890#5"/>
    <trip id="31" depart="31.00" from="55684811#3" to="-579754560#0"/>
    <trip id="32" depart="32.00" from="505067561#2" to="-172616580#1"/>
    <trip id="33" depart="33.00" from="988872287#0" to="-28258932#0"/>
    <trip id="34" depart="34.00" from="-232538990" to="162540379"/>
    <trip id="35" depart="35.00" from="28258922#5" to="987768587"/>
    <trip id="36" depart="36.00" from="987175572#0" to="28320653#2"/>
    <trip id="37" depart="37.00" from="763981335#4" to="188310118#1"/>
    <trip id="38" depart="38.00" from="172616768#0" to="-235001457#2"/>
    <trip id="39" depart="39.00" from="216086967#0" to="-579754567"/>
    <trip id="40" depart="40.00" from="381473923" to="28320653#2"/>
    <trip id="41" depart="41.00" from="-172616580#1" to="162532764#1"/>
    <trip id="42" depart="42.00" from="162540383#0" to="152428520"/>
    <trip id="43" depart="43.00" from="290629737#0" to="28718664#2"/>
    <trip id="44" depart="44.00" from="972426374#2" to="-55696746#2"/>
    <trip id="45" depart="45.00" from="55696766#2" to="763981347#0"/>
    <trip id="46" depart="46.00" from="1267300704#0" to="28322141#7"/>
    <trip id="47" depart="47.00" from="-55696757#9" to="601991307#16"/>
    <trip id="48" depart="48.00" from="-212724368#3" to="-267021152#4"/>
    <trip id="49" depart="49.00" from="55684811#2" to="1341036240#0"/>
    <trip id="50" depart="50.00" from="-259862198#7" to="235262496"/>
    <trip id="51" depart="51.00" from="28320653#0" to="89567410#5"/>
    <trip id="52" depart="52.00" from="295965991#6" to="334648926#1"/>
    <trip id="53" depart="53.00" from="234973547#0" to="-290001033#3"/>
    <trip id="54" depart="54.00" from="987768589#2" to="601991307#16"/>
    <trip id="55" depart="55.00" from="28340417#0" to="601991309#10"/>
    <trip id="56" depart="56.00" from="776349482#1" to="973574010#0"/>
    <trip id="57" depart="57.00" from="-162532789#1" to="457336112#1"/>
    <trip id="58" depart="58.00" from="212724368#1" to="1341036239#0"/>
    <trip id="59" depart="59.00" from="187184122" to="28320648#1"/>
    <trip id="60" depart="60.00" from="973588631#1" to="-187184131#0"/>
    <trip id="61" depart="61.00" from="-245404536#2" to="457067488#4"/>
    <trip id="62" depart="62.00" from="381473923" to="28258927#1"/>
    <trip id="63" depart="63.00" from="-162532763#0" to="457336112#1"/>
    <trip id="64" depart="64.00" from="979484072#3" to="763981337#3"/>
    <trip id="65" depart="65.00" from="259862201#0" to="28718654#0"/>
    <trip id="66" depart="66.00" from="266773677#0" to="988872284#2"/>
    <trip id="67" depart="67.00" from="238114273" to="378456336#4"/>
    <trip id="68" depart="68.00" from="1005916244#1" to="763981357#0"/>
    <trip id="69" depart="69.00" from="1341036244#2" to="235001457#4"/>
    <trip id="70" depart="70.00" from="601991309#0" to="172616580#4"/>
    <trip id="71" depart="71.00" from="162540373#0" to="-183399832#22"/>
    <trip id="72" depart="72.00" from="-234973547#1" to="142432186#12"/>
    <trip id="73" depart="73.00" from="-245404521#0" to="969129254"/>
    <trip id="74" depart="74.00" from="28718652#0" to="457336112#1"/>
    <trip id="75" depart="75.00" from="-212724368#2" to="335513936#3"/>
    <trip id="76" depart="76.00" from="526108307#0" to="537296529#2"/>
    <trip id="77" depart="77.00" from="-55697486#5" to="172622685#0"/>
    <trip id="78" depart="78.00" from="763981355#0" to="988471122#2"/>
    <trip id="79" depart="79.00" from="-259862198#8" to="142432186#7"/>
    <trip id="80" depart="80.00" from="-258738672#1" to="457307903#3"/>
    <trip id="81" depart="81.00" from="258738672#0" to="969127972#5"/>
    <trip id="82" depart="82.00" from="55697486#1" to="-162532763#0"/>
    <trip id="83" depart="83.00" from="-245404521#1" to="258738669"/>
    <trip id="84" depart="84.00" from="142320579" to="142320577#1"/>
    <trip id="85" depart="85.00" from="-235001456#1" to="763981335#4"/>
    <trip id="86" depart="86.00" from="-169172414#2" to="-55696746#2"/>
    <trip id="87" depart="87.00" from="-293146552#1" to="183399832#12"/>
    <trip id="88" depart="88.00" from="987768589#2" to="381473319#3"/>
    <trip id="89" depart="89.00" from="763981335#3" to="279074007"/>
    <trip id="90" depart="90.00" from="188422650" to="181012263#1"/>
    <trip id="91" depart="91.00" from="183399832#13" to="-568945054#0"/>
    <trip id="92" depart="92.00" from="579754560#0" to="245736708#0"/>
    <trip id="93" depart="93.00" from="-988471124#0" to="-245404521#0"/>
    <trip id="94" depart="94.00" from="-249318206#2" to="-142432191#3"/>
    <trip id="95" depart="95.00" from="334648915#0" to="279074002#0"/>
    <trip id="96" depart="96.00" from="601991309#2" to="279074009#2"/>
    <trip id="97" depart="97.00" from="232538990" to="763981330#2"/>
    <trip id="98" depart="98.00" from="28340417#2" to="601991307#16"/>
    <trip id="99" depart="99.00" from="1007764466#0" to="601991307#1"/>
    <trip id="100" depart="100.00" from="162658744" to="-188310376"/>
    <trip id="101" depart="101.00" from="-259862198#2" to="334648176#14"/>
    <trip id="102" depart="102.00" from="290001035#0" to="142432188#4"/>
    <trip id="103" depart="103.00" from="212722769#1" to="-290001033#2"/>
    <trip id="104" depart="104.00" from="28340415" to="162532768#7"/>
    <trip id="105" depart="105.00" from="-28718657" to="-169172414#0"/>
    <trip id="106" depart="106.00" from="763981353#3" to="988471124#0"/>
    <trip id="107" depart="107.00" from="763981358#0" to="55697486#0"/>
    <trip id="108" depart="108.00" from="-188308632#2" to="181012263#1"/>
    <trip id="109" depart="109.00" from="245404536#1" to="55696766#8"/>
    <trip id="110" depart="110.00" from="1370825390#1" to="-188701914#1"/>
    <trip id="111" depart="111.00" from="260087890#0" to="-245404523#1"/>
    <trip id="112" depart="112.00" from="28258007#2" to="764306732#2"/>
    <trip id="113" depart="113.00" from="988872284#2" to="601991309#2"/>
    <trip id="114" depart="114.00" from="537298737#4" to="763981353#2"/>
    <trip id="115" depart="115.00" from="162540379" to="764116251#3"/>
    <trip id="116" depart="116.00" from="-1005916238#0" to="55696759#0"/>
    <trip id="117" depart="117.00" from="148975613#8" to="1260490071#1"/>
    <trip id="118" depart="118.00" from="457067485#2" to="212724760#1"/>
    <trip id="119" depart="119.00" from="601991309#0" to="579754562#1"/>
    <trip id="120" depart="120.00" from="457307903#4" to="537296529#2"/>
    <trip id="121" depart="121.00" from="293499686" to="162532768#7"/>
    <trip id="122" depart="122.00" from="148975616#2" to="162532768#7"/>
    <trip id="123" depart="123.00" from="335518633#3" to="764306732#2"/>
    <trip id="124" depart="124.00" from="973588631#1" to="-260087890#5"/>
    <trip id="125" depart="125.00" from="28258922#3" to="-258738672#1"/>
    <trip id="126" depart="126.00" from="142320575#1" to="1007764466#0"/>
    <trip id="127" depart="127.00" from="579755569" to="212724368#1"/>
    <trip id="128" depart="128.00" from="-28506885" to="252865571#1"/>
    <trip id="129" depart="129.00" from="258738962#0" to="263859123#4"/>
    <trip id="130" depart="130.00" from="1267300717#0" to="152428520"/>
    <trip id="131" depart="131.00" from="-526108303#1" to="-582088638#0"/>
    <trip id="132" depart="132.00" from="28718664#2" to="763981339#8"/>
    <trip id="133" depart="133.00" from="579754565#0" to="335560622#13"/>
    <trip id="134" depart="134.00" from="55696759#2" to="142320606#4"/>
    <trip id="135" depart="135.00" from="260087890#0" to="28275321#4"/>
    <trip id="136" depart="136.00" from="188307757#1" to="335527368"/>
    <trip id="137" depart="137.00" from="-183399832#22" to="28506885"/>
    <trip id="138" depart="138.00" from="335527370" to="763981360"/>
    <trip id="139" depart="139.00" from="335513936#3" to="28258007#1"/>
    <trip id="140" depart="140.00" from="764116241#8" to="-1060275296#2"/>
    <trip id="141" depart="141.00" from="457307903#3" to="644918303#0"/>
    <trip id="142" depart="142.00" from="1005916236#2" to="1005916236#2"/>
    <trip id="143" depart="143.00" from="-290001033#0" to="290001035#0"/>
    <trip id="144" depart="144.00" from="245736715" to="162658756#0"/>
    <trip id="145" depart="145.00" from="988872291" to="-55697035#0"/>
    <trip id="146" depart="146.00" from="-988872284#2" to="55696761#4"/>
    <trip id="147" depart="147.00" from="162532773#2" to="183399832#2"/>
    <trip id="148" depart="148.00" from="-55697035#3" to="55697486#5"/>
    <trip id="149" depart="149.00" from="579754562#1" to="570457876#0"/>
    <trip id="150" depart="150.00" from="-290001035#1" to="172616580#6"/>
    <trip id="151" depart="151.00" from="-988471124#0" to="28258007#1"/>
    <trip id="152" depart="152.00" from="142432186#2" to="-183399832#12"/>
    <trip id="153" depart="153.00" from="579754560#0" to="28322141#6"/>
    <trip id="154" depart="154.00" from="-181012263#2" to="172616580#1"/>
    <trip id="155" depart="155.00" from="644918311" to="28320648#2"/>
    <trip id="156" depart="156.00" from="142432186#12" to="142320606#3"/>
    <trip id="157" depart="157.00" from="929222939#1" to="988821757#3"/>
    <trip id="158" depart="158.00" from="570457876#0" to="-212724368#1"/>
    <trip id="159" depart="159.00" from="259862198#3" to="-290001035#1"/>
    <trip id="160" depart="160.00" from="266746954" to="1341036241#2"/>
    <trip id="161" depart="161.00" from="-249318206#4" to="142432186#16"/>
    <trip id="162" depart="162.00" from="987768589#2" to="55684811#3"/>
    <trip id="163" depart="163.00" from="290001035#1" to="987175572#2"/>
    <trip id="164" depart="164.00" from="1267300716#0" to="764306732#2"/>
    <trip id="165" depart="165.00" from="55696757#5" to="-235001457#0"/>
    <trip id="166" depart="166.00" from="-238114273" to="258738669"/>
    <trip id="167" depart="167.00" from="142432186#6" to="1270795076#0"/>
    <trip id="168" depart="168.00" from="212724368#1" to="290001036"/>
    <trip id="169" depart="169.00" from="-988872284#3" to="293499689"/>
    <trip id="170" depart="170.00" from="-1022454981#0" to="258742307#2"/>
    <trip id="171" depart="171.00" from="763981355#1" to="-1260489063"/>
    <trip id="172" depart="172.00" from="1248255094#3" to="764116252#4"/>
    <trip id="173" depart="173.00" from="279074005" to="457067485#3"/>
    <trip id="174" depart="174.00" from="28258007#5" to="764116252#4"/>
    <trip id="175" depart="175.00" from="172616580#2" to="-245404536#1"/>
    <trip id="176" depart="176.00" from="-378456336#3" to="-1005916244#0"/>
    <trip id="177" depart="177.00" from="-260087890#1" to="235262496"/>
    <trip id="178" depart="178.00" from="251746752#0" to="-162532789#0"/>
    <trip id="179" depart="179.00" from="89567410#2" to="259862198#0"/>
    <trip id="180" depart="180.00" from="258738682#2" to="537296529#2"/>
    <trip id="181" depart="181.00" from="-178430288#2" to="28322141#2"/>
    <trip id="182" depart="182.00" from="1270795076#2" to="-267021152#4"/>
    <trip id="183" depart="183.00" from="-55696757#1" to="969127972#2"/>
    <trip id="184" depart="184.00" from="333194387#3" to="28258932#4"/>
    <trip id="185" depart="185.00" from="601991309#1" to="457301965#0"/>
    <trip id="186" depart="186.00" from="148975616#2" to="259862200#0"/>
    <trip id="187" depart="187.00" from="1341036239#2" to="1267300716#0"/>
    <trip id="188" depart="188.00" from="55684811#1" to="988471124#0"/>
    <trip id="189" depart="189.00" from="-188701914#1" to="259480949#2"/>
    <trip id="190" depart="190.00" from="763981358#0" to="579754569#0"/>
    <trip id="191" depart="191.00" from="381429050" to="988821757#1"/>
    <trip id="192" depart="192.00" from="335513936#0" to="258738682#3"/>
    <trip id="193" depart="193.00" from="764116241#6" to="764116251#3"/>
    <trip id="194" depart="194.00" from="601991309#0" to="162540383#4"/>
    <trip id="195" depart="195.00" from="-212724368#1" to="1267300715#2"/>
    <trip id="196" depart="196.00" from="-579754564" to="-188310118#1"/>
    <trip id="197" depart="197.00" from="28258922#3" to="601991309#4"/>
    <trip id="198" depart="198.00" from="335560622#6" to="335527380"/>
    <trip id="199" depart="199.00" from="-1260489062#0" to="260087891#4"/>
    <trip id="200" depart="200.00" from="-235262496" to="987175572#2"/>
    <trip id="201" depart="201.00" from="1260489062#0" to="162540379"/>
    <trip id="202" depart="202.00" from="245404536#2" to="-245404536#1"/>
    <trip id="203" depart="203.00" from="55696757#5" to="457067485#3"/>
    <trip id="204" depart="204.00" from="28718665#6" to="-378456333#1"/>
    <trip id="205" depart="205.00" from="1341036244#1" to="334648176#17"/>
    <trip id="206" depart="206.00" from="-188307757#2" to="763981363#1"/>
    <trip id="207" depart="207.00" from="1267300704#1" to="-55697486#0"/>
    <trip id="208" depart="208.00" from="290629737#0" to="-212724368#2"/>
    <trip id="209" depart="209.00" from="162532765#2" to="30525582#0"/>
    <trip id="210" depart="210.00" from="-234973547#8" to="235099237#2"/>
    <trip id="211" depart="211.00" from="266773682#6" to="579754561#0"/>
    <trip id="212" depart="212.00" from="235264606" to="-1005916236#2"/>
    <trip id="213" depart="213.00" from="235001188#1" to="988471124#0"/>
    <trip id="214" depart="214.00" from="988821756#1" to="987768589#5"/>
    <trip id="215" depart="215.00" from="-245736715" to="988821756#1"/>
    <trip id="216" depart="216.00" from="929222943#3" to="-245405180#6"/>
    <trip id="217" depart="217.00" from="235001188#1" to="-181012263#2"/>
    <trip id="218" depart="218.00" from="457067485#3" to="-188307726"/>
    <trip id="219" depart="219.00" from="212722769#0" to="1248255093#2"/>
    <trip id="220" depart="220.00" from="601991307#13" to="335518633#2"/>
    <trip id="221" depart="221.00" from="216086967#0" to="763981364#4"/>
    <trip id="222" depart="222.00" from="-55696746#3" to="258738682#2"/>
    <trip id="223" depart="223.00" from="-290001035#0" to="378456333#2"/>
    <trip id="224" depart="224.00" from="1261913122#4" to="-235260925#0"/>
    <trip id="225" depart="225.00" from="55696765#2" to="259862199#1"/>
    <trip id="226" depart="226.00" from="-235001456#1" to="258738673#6"/>
    <trip id="227" depart="227.00" from="162658744" to="-212724368#1"/>
    <trip id="228" depart="228.00" from="-235260925#0" to="568945055"/>
    <trip id="229" depart="229.00" from="28718665#6" to="162532763#0"/>
    <trip id="230" depart="230.00" from="988793730#1" to="-263308433#0"/>
    <trip id="231" depart="231.00" from="1007764466#0" to="172616580#2"/>
    <trip id="232" depart="232.00" from="-1260489062#0" to="28340415"/>
    <trip id="233" depart="233.00" from="266773682#3" to="579754561#0"/>
    <trip id="234" depart="234.00" from="764116241#8" to="505067561#3"/>
    <trip id="235" depart="235.00" from="258738665" to="263859123#4"/>
    <trip id="236" depart="236.00" from="764116246#0" to="579754566"/>
    <trip id="237" depart="237.00" from="235001188#3" to="1267300715#2"/>
    <trip id="238" depart="238.00" from="987175572#0" to="55684811#2"/>
    <trip id="239" depart="239.00" from="-1260490072" to="-644918306"/>
    <trip id="240" depart="240.00" from="28506885" to="988853730#2"/>
    <trip id="241" depart="241.00" from="235264606" to="764116241#6"/>
    <trip id="242" depart="242.00" from="-267021152#1" to="235002633#2"/>
    <trip id="243" depart="243.00" from="55696747#0" to="-568945054#1"/>
    <trip id="244" depart="244.00" from="55696757#5" to="764306732#2"/>
    <trip id="245" depart="245.00" from="258738682#2" to="335527380"/>
    <trip id="246" depart="246.00" from="-541660246#4" to="764116252#4"/>
    <trip id="247" depart="247.00" from="259862198#8" to="55697488#1"/>
    <trip id="248" depart="248.00" from="260087891#3" to="-457301964#1"/>
    <trip id="249" depart="249.00" from="315561296#2" to="763981330#7"/>
    <trip id="250" depart="250.00" from="172616580#2" to="601991307#16"/>
    <trip id="251" depart="251.00" from="1267300704#0" to="258738673#3"/>
    <trip id="252" depart="252.00" from="-28718652#2" to="335518633#2"/>
    <trip id="253" depart="253.00" from="-363035828#1" to="644918306"/>
    <trip id="254" depart="254.00" from="28275322#2" to="-417508834"/>
    <trip id="255" depart="255.00" from="335560622#7" to="-973937408"/>
    <trip id="256" depart="256.00" from="260087890#0" to="-644918326"/>
    <trip id="257" depart="257.00" from="381473316#3" to="290629737#4"/>
    <trip id="258" depart="258.00" from="335527377#0" to="172622685#0"/>
    <trip id="259" depart="259.00" from="142432186#6" to="987768589#0"/>
    <trip id="260" depart="260.00" from="-235099240#1" to="55697488#2"/>
    <trip id="261" depart="261.00" from="245284598#1" to="-378456337"/>
    <trip id="262" depart="262.00" from="172616580#7" to="-1260490070#0"/>
    <trip id="263" depart="263.00" from="582088639#0" to="172616580#6"/>
    <trip id="264" depart="264.00" from="-55696757#2" to="55696759#0"/>
    <trip id="265" depart="265.00" from="1270795076#2" to="568945055"/>
    <trip id="266" depart="266.00" from="1341036244#1" to="-260087890#0"/>
    <trip id="267" depart="267.00" from="290629737#0" to="212722769#1"/>
    <trip id="268" depart="268.00" from="295965990#2" to="142320606#2"/>
    <trip id="269" depart="269.00" from="263859123#1" to="1248255094#1"/>
    <trip id="270" depart="270.00" from="245736708#0" to="28275322#2"/>
    <trip id="271" depart="271.00" from="235001456#1" to="763981339#7"/>
    <trip id="272" depart="272.00" from="1341036243#0" to="-55696757#2"/>
    <trip id="273" depart="273.00" from="988471124#0" to="601991307#16"/>
    <trip id="274" depart="274.00" from="55696757#1" to="579754562#2"/>
    <trip id="275" depart="275.00" from="216086964#0" to="764116251#3"/>
    <trip id="276" depart="276.00" from="28258939#0" to="1341036244#10"/>
    <trip id="277" depart="277.00" from="-378456333#1" to="764116252#3"/>
    <trip id="278" depart="278.00" from="378456337" to="988872287#0"/>
    <trip id="279" depart="279.00" from="258742307#6" to="172616580#6"/>
    <trip id="280" depart="280.00" from="251746752#0" to="235001457#4"/>
    <trip id="281" depart="281.00" from="764116241#5" to="172623555#1"/>
    <trip id="282" depart="282.00" from="335560622#3" to="582088634#1"/>
    <trip id="283" depart="283.00" from="1022454981#0" to="293499687"/>
    <trip id="284" depart="284.00" from="763981335#8" to="764116241#2"/>
    <trip id="285" depart="285.00" from="-55696749#1" to="1005916244#1"/>
    <trip id="286" depart="286.00" from="148975613#5" to="763981360"/>
    <trip id="287" depart="287.00" from="988872289#1" to="763981358#0"/>
    <trip id="288" depart="288.00" from="28258922#3" to="28258007#2"/>
    <trip id="289" depart="289.00" from="235001457#0" to="579754565#3"/>
    <trip id="290" depart="290.00" from="162532772" to="315561296#3"/>
    <trip id="291" depart="291.00" from="28506885" to="526108304#1"/>
    <trip id="292" depart="292.00" from="-212724368#2" to="1341036240#1"/>
    <trip id="293" depart="293.00" from="290629737#0" to="28258007#1"/>
    <trip id="294" depart="294.00" from="142432191#9" to="764306732#2"/>
    <trip id="295" depart="295.00" from="582088635#4" to="293499689"/>
    <trip id="296" depart="296.00" from="162532781#0" to="378456333#1"/>
    <trip id="297" depart="297.00" from="601991309#1" to="142321170#0"/>
    <trip id="298" depart="298.00" from="601991309#0" to="333194387#3"/>
    <trip id="299" depart="299.00" from="-162532763#0" to="764306732#2"/>
    <trip id="300" depart="300.00" from="537298737#8" to="142321170#0"/>
    <trip id="301" depart="301.00" from="55696766#7" to="-1060275296#1"/>
    <trip id="302" depart="302.00" from="-245404521#1" to="28258922#3"/>
    <trip id="303" depart="303.00" from="148975616#0" to="259862205#1"/>
    <trip id="304" depart="304.00" from="245405180#4" to="537298737#8"/>
    <trip id="305" depart="305.00" from="162532764#3" to="28718657"/>
    <trip id="306" depart="306.00" from="162532768#0" to="55696757#11"/>
    <trip id="307" depart="307.00" from="-162532787#1" to="988872287#0"/>
    <trip id="308" depart="308.00" from="267021152#4" to="-172616580#6"/>
    <trip id="309" depart="309.00" from="55696757#10" to="172616580#4"/>
    <trip id="310" depart="310.00" from="28718652#0" to="537298737#8"/>
    <trip id="311" depart="311.00" from="162540383#4" to="28340415"/>
    <trip id="312" depart="312.00" from="1341036239#5" to="-644918305"/>
    <trip id="313" depart="313.00" from="-142320577#1" to="89567410#5"/>
    <trip id="314" depart="314.00" from="763981347#1" to="988872289#1"/>
    <trip id="315" depart="315.00" from="258742307#7" to="295965990#1"/>
    <trip id="316" depart="316.00" from="335527372#1" to="293499689"/>
    <trip id="317" depart="317.00" from="295965991#4" to="172616580#3"/>
    <trip id="318" depart="318.00" from="162532789#0" to="259862200#0"/>
    <trip id="319" depart="319.00" from="290001036" to="763981331#4"/>
    <trip id="320" depart="320.00" from="188310118#0" to="-644918305"/>
    <trip id="321" depart="321.00" from="987768568#0" to="1060275296#2"/>
    <trip id="322" depart="322.00" from="-568945053" to="-183399832#22"/>
    <trip id="323" depart="323.00" from="28340417#2" to="601991307#16"/>
    <trip id="324" depart="324.00" from="601991309#0" to="-579754565#2"/>
    <trip id="325" depart="325.00" from="-279074005" to="-290001033#1"/>
    <trip id="326" depart="326.00" from="764306732#2" to="290001035#0"/>
    <trip id="327" depart="327.00" from="-457301965#0" to="293499689"/>
    <trip id="328" depart="328.00" from="-245404532#1" to="212724368#1"/>
    <trip id="329" depart="329.00" from="55696766#7" to="570457876#0"/>
    <trip id="330" depart="330.00" from="28718664#7" to="763981353#2"/>
    <trip id="331" depart="331.00" from="162541226#1" to="235002633#1"/>
    <trip id="332" depart="332.00" from="148975616#0" to="212724368#2"/>
    <trip id="333" depart="333.00" from="258738667#0" to="-142432188#3"/>
    <trip id="334" depart="334.00" from="235264607#0" to="172623555#1"/>
    <trip id="335" depart="335.00" from="162540379" to="763981344#6"/>
    <trip id="336" depart="336.00" from="162658744" to="188307636"/>
    <trip id="337" depart="337.00" from="1344551676" to="266773682#1"/>
    <trip id="338" depart="338.00" from="55684811#2" to="55696746#7"/>
    <trip id="339" depart="339.00" from="334648176#17" to="89567410#2"/>
    <trip id="340" depart="340.00" from="148975616#0" to="315561296#2"/>
    <trip id="341" depart="341.00" from="235260925#0" to="380719193"/>
    <trip id="342" depart="342.00" from="-988471124#0" to="335527377#0"/>
    <trip id="343" depart="343.00" from="763981339#7" to="28320653#2"/>
    <trip id="344" depart="344.00" from="-235262496" to="148975613#1"/>
    <trip id="345" depart="345.00" from="1344551676" to="148975613#13"/>
    <trip id="346" depart="346.00" from="249318206#4" to="-234973547#8"/>
    <trip id="347" depart="347.00" from="1248255093#0" to="979484072#3"/>
    <trip id="348" depart="348.00" from="-579754562#3" to="55691954#1"/>
    <trip id="349" depart="349.00" from="-579754564" to="263308433#1"/>
    <trip id="350" depart="350.00" from="381473315" to="148975616#2"/>
    <trip id="351" depart="351.00" from="763981335#0" to="764116246#0"/>
    <trip id="352" depart="352.00" from="28275321#1" to="537298737#4"/>
    <trip id="353" depart="353.00" from="333194387#7" to="1261913122#3"/>
    <trip id="354" depart="354.00" from="1341036240#3" to="-290001034#0"/>
    <trip id="355" depart="355.00" from="258738667#0" to="-188310376"/>
    <trip id="356" depart="356.00" from="-1260617981#0" to="-245404536#2"/>
    <trip id="357" depart="357.00" from="334648915#0" to="457067488#3"/>
    <trip id="358" depart="358.00" from="-258738672#0" to="-988853724"/>
    <trip id="359" depart="359.00" from="-579754562#1" to="-1060275296#1"/>
    <trip id="360" depart="360.00" from="988872286#2" to="334648914#2"/>
    <trip id="361" depart="361.00" from="-181012263#1" to="-988471124#0"/>
    <trip id="362" depart="362.00" from="601991309#0" to="457336112#1"/>
    <trip id="363" depart="363.00" from="-187184131#0" to="142432188#2"/>
    <trip id="364" depart="364.00" from="28718665#6" to="988872284#3"/>
    <trip id="365" depart="365.00" from="-258738672#0" to="601991309#2"/>
    <trip id="366" depart="366.00" from="-55691954#1" to="55696759#1"/>
    <trip id="367" depart="367.00" from="763981363#1" to="335518633#1"/>
    <trip id="368" depart="368.00" from="763981355#0" to="334648914#2"/>
    <trip id="369" depart="369.00" from="776349482#1" to="28718664#2"/>
    <trip id="370" depart="370.00" from="28718664#0" to="263859123#4"/>
    <trip id="371" depart="371.00" from="764306732#2" to="55691954#1"/>
    <trip id="372" depart="372.00" from="28718664#4" to="-1260617981#2"/>
    <trip id="373" depart="373.00" from="764116241#5" to="-245404521#0"/>
    <trip id="374" depart="374.00" from="28258007#1" to="988872284#4"/>
    <trip id="375" depart="375.00" from="258738664#2" to="763981339#0"/>
    <trip id="376" depart="376.00" from="1341036243#0" to="988471124#0"/>
    <trip id="377" depart="377.00" from="290001033#2" to="28340419#0"/>
    <trip id="378" depart="378.00" from="263859123#3" to="-290001035#0"/>
    <trip id="379" depart="379.00" from="148975616#2" to="1260617981#2"/>
    <trip id="380" depart="380.00" from="1060275296#0" to="-212724368#3"/>
    <trip id="381" depart="381.00" from="-55696746#3" to="1341036244#9"/>
    <trip id="382" depart="382.00" from="-162532763#3" to="142432188#2"/>
    <trip id="383" depart="383.00" from="148975613#4" to="162532768#4"/>
    <trip id="384" depart="384.00" from="579754567" to="764306732#2"/>
    <trip id="385" depart="385.00" from="763981363#0" to="142432186#14"/>
    <trip id="386" depart="386.00" from="579754560#0" to="568101302"/>
    <trip id="387" depart="387.00" from="579754564" to="258738664#1"/>
    <trip id="388" depart="388.00" from="-172616580#1" to="142432188#4"/>
    <trip id="389" depart="389.00" from="290629737#5" to="162542043#3"/>
    <trip id="390" depart="390.00" from="763981335#7" to="-28258932#0"/>
    <trip id="391" depart="391.00" from="55696757#1" to="-579754565#3"/>
    <trip id="392" depart="392.00" from="763981335#7" to="162532789#1"/>
    <trip id="393" depart="393.00" from="152429084" to="258738672#0"/>
    <trip id="394" depart="394.00" from="987768589#4" to="-290001035#1"/>
    <trip id="395" depart="395.00" from="334648926#1" to="293499689"/>
    <trip id="396" depart="396.00" from="55697488#2" to="1270795076#2"/>
    <trip id="397" depart="397.00" from="293499687" to="763981353#2"/>
    <trip id="398" depart="398.00" from="290629737#5" to="-1005916243#0"/>
    <trip id="399" depart="399.00" from="381409555" to="-142432191#9"/>
    <trip id="400" depart="400.00" from="-258738672#1" to="162532764#6"/>
    <trip id="401" depart="401.00" from="969127972#5" to="-988872284#4"/>
    <trip id="402" depart="402.00" from="457336112#1" to="28718654#0"/>
    <trip id="403" depart="403.00" from="28258922#1" to="258738673#6"/>
    <trip id="404" depart="404.00" from="1270795076#0" to="-252865571#0"/>
    <trip id="405" depart="405.00" from="457067488#1" to="245736715"/>
    <trip id="406" depart="406.00" from="28718665#1" to="1341036244#2"/>
    <trip id="407" depart="407.00" from="1267300715#0" to="335527377#0"/>